LTspice 24.1.1 for Windows
Circuit: C:\Users\vigne\Documents\LTspice\PrecisionRectifierFullWave.net
Start Time: Wed Dec 24 19:19:56 2025
solver = Normal
Maximum thread count: 12
tnom = 27
temp = 27
method = trap
Direct Newton iteration failed to find .op point.  (Use ".option noopiter" to skip.)
Starting Gmin stepping
Increasing initial diagonal Gmin to 100
Increasing initial diagonal Gmin to 1000
Increasing initial diagonal Gmin to 10000
Increasing initial diagonal Gmin to 100000
Increasing initial diagonal Gmin to 1e+06
Initial Gmin=1e+06 failed
Gmin stepping failed

Starting source stepping with srcstepmethod=0
Source Step = 3.0303%
Source Step = 33.3333%
Source Step = 63.6364%
Source Step = 93.9394%
Source stepping succeeded in finding the operating point.

Total elapsed time: 0.380 seconds.

Files loaded:
C:\Users\vigne\Documents\LTspice\PrecisionRectifierFullWave.net
C:\Users\vigne\AppData\Local\LTspice\lib\cmp\standard.dio
C:\Users\vigne\Documents\LTspice\TLV271.txt.txt

