LTspice 24.1.1 for Windows
Circuit: C:\Users\vigne\Documents\LTspice\PrecisionRectifier.net
Start Time: Wed Dec 24 18:49:09 2025
solver = Normal
Maximum thread count: 12
tnom = 27
temp = 27
method = trap
Direct Newton iteration failed to find .op point.  (Use ".option noopiter" to skip.)
Starting Gmin stepping
Gmin = 10
Gmin = 1.07374
vernier = 0.5
vernier = 0.25
vernier = 0.125
vernier = 0.0625
vernier = 0.03125
vernier = 0.015625
Gmin = 1.01058
vernier = 0.0078125
vernier = 0.00390625
vernier = 0.00195312
vernier = 0.000976562
vernier = 0.000488281
Gmin = 0
Gmin stepping succeeded in finding the operating point.

Total elapsed time: 0.364 seconds.

Files loaded:
C:\Users\vigne\Documents\LTspice\PrecisionRectifier.net
C:\Users\vigne\AppData\Local\LTspice\lib\cmp\standard.dio
C:\Users\vigne\Documents\LTspice\TLV271.txt.txt

